<?xml version="1.0" encoding="UTF-8"?>

<!-- generated on 2025-03-14 16:25:01.148785 by osmWebWizard.py v1_22_0+0002-63e50f52594
<configuration>
    <net-file value="C:\Users\Pushp Raj Choudhary\2025-03-14-16-24-53\osm.net.xml.gz"/>
    <output-trip-file value="C:\Users\Pushp Raj Choudhary\2025-03-14-16-24-53\osm.passenger.trips.xml"/>
    <route-file value="C:\Users\Pushp Raj Choudhary\2025-03-14-16-24-53\osm.passenger.rou.xml"/>
    <prefix value="veh"/>
    <trip-attributes value="departLane=&quot;best&quot;"/>
    <fringe-start-attributes value="departSpeed=&quot;max&quot;"/>
    <vehicle-class value="passenger"/>
    <lanes value="True"/>
    <fringe-factor value="5"/>
    <allow-fringe.min-length value="1000.0"/>
    <via-edge-types value="highway.motorway,highway.motorway_link,highway.trunk_link,highway.primary_link,highway.secondary_link,highway.tertiary_link"/>
    <min-distance value="300.0"/>
    <min-distance.fringe value="10.0"/>
    <remove-loops value="True"/>
    <validate value="True"/>
    <insertion-density value="12.0"/>
</configuration>
-->

<!-- generated on 2025-03-14 16:25:01 by Eclipse SUMO duarouter Version 1.22.0
<duarouterConfiguration xmlns:xsi="http://www.w3.org/2001/XMLSchema-instance" xsi:noNamespaceSchemaLocation="http://sumo.dlr.de/xsd/duarouterConfiguration.xsd">

    <input>
        <net-file value="C:\Users\Pushp Raj Choudhary\2025-03-14-16-24-53\osm.net.xml.gz"/>
        <route-files value="C:\Users\Pushp Raj Choudhary\2025-03-14-16-24-53\osm.passenger.trips.xml"/>
    </input>

    <output>
        <output-file value="C:\Users\Pushp Raj Choudhary\2025-03-14-16-24-53\osm.passenger.trips.xml.tmp"/>
        <alternatives-output value="NUL"/>
        <write-trips value="true"/>
    </output>

    <processing>
        <remove-loops value="true"/>
    </processing>

    <time>
        <begin value="0.0"/>
        <end value="3600.0"/>
    </time>

    <report>
        <no-warnings value="true"/>
        <ignore-errors value="true"/>
        <no-step-log value="true"/>
    </report>

</duarouterConfiguration>
-->

<routes xmlns:xsi="http://www.w3.org/2001/XMLSchema-instance" xsi:noNamespaceSchemaLocation="http://sumo.dlr.de/xsd/routes_file.xsd">
    <vType id="veh_passenger" vClass="passenger"/>
    <trip id="veh0" type="veh_passenger" depart="0.00" departLane="best" from="1288011209" to="-101966393#1"/>
    <trip id="veh1" type="veh_passenger" depart="8.75" departLane="best" from="-52155743#2" to="-1124102312"/>
    <trip id="veh3" type="veh_passenger" depart="26.24" departLane="best" from="52087627#2" to="-101966494"/>
    <trip id="veh4" type="veh_passenger" depart="34.98" departLane="best" from="-101972960#1" to="-101966397"/>
    <trip id="veh5" type="veh_passenger" depart="43.73" departLane="best" departSpeed="max" from="-1178016910" to="102688631#3"/>
    <trip id="veh6" type="veh_passenger" depart="52.47" departLane="best" from="1196283316" to="-103082316#1"/>
    <trip id="veh7" type="veh_passenger" depart="61.22" departLane="best" from="1124089275#1" to="102784452#8"/>
    <trip id="veh8" type="veh_passenger" depart="69.96" departLane="best" departSpeed="max" from="-1178016910" to="103082314#4"/>
    <trip id="veh9" type="veh_passenger" depart="78.71" departLane="best" from="1199457538#2" to="-101757243"/>
    <trip id="veh10" type="veh_passenger" depart="87.46" departLane="best" from="1198952555#3" to="1126518490#0"/>
    <trip id="veh11" type="veh_passenger" depart="96.20" departLane="best" from="-101966443#12" to="-103079292"/>
    <trip id="veh12" type="veh_passenger" depart="104.95" departLane="best" from="562694503#0" to="101757273#0"/>
    <trip id="veh13" type="veh_passenger" depart="113.69" departLane="best" from="1199457538#0" to="1128043713#3"/>
    <trip id="veh14" type="veh_passenger" depart="122.44" departLane="best" from="-103050330#4" to="52155744#2"/>
    <trip id="veh15" type="veh_passenger" depart="131.18" departLane="best" from="101966492" to="102961698#6"/>
    <trip id="veh16" type="veh_passenger" depart="139.93" departLane="best" from="1277600332#0" to="-103082310#0"/>
    <trip id="veh17" type="veh_passenger" depart="148.67" departLane="best" from="1124089271" to="101966443#11"/>
    <trip id="veh18" type="veh_passenger" depart="157.42" departLane="best" from="-1198952554#10" to="-52155579#0"/>
    <trip id="veh19" type="veh_passenger" depart="166.17" departLane="best" from="-101966443#9" to="-1178018200#0"/>
    <trip id="veh20" type="veh_passenger" depart="174.91" departLane="best" from="101972892#1" to="-1309211043"/>
    <trip id="veh21" type="veh_passenger" depart="183.66" departLane="best" from="1124089271" to="101966385#3"/>
    <trip id="veh22" type="veh_passenger" depart="192.40" departLane="best" departSpeed="max" from="101966481" to="-111507856"/>
    <trip id="veh23" type="veh_passenger" depart="201.15" departLane="best" from="-52155736#2" to="52152302#5"/>
    <trip id="veh24" type="veh_passenger" depart="209.89" departLane="best" from="1124089275#1" to="103082323#0"/>
    <trip id="veh25" type="veh_passenger" depart="218.64" departLane="best" from="-103082314#8" to="1128043713#3"/>
    <trip id="veh26" type="veh_passenger" depart="227.38" departLane="best" from="-103082314#3" to="101966430#0"/>
    <trip id="veh27" type="veh_passenger" depart="236.13" departLane="best" departSpeed="max" from="771670219" to="1124089268"/>
    <trip id="veh28" type="veh_passenger" depart="244.88" departLane="best" from="103082310#0" to="1124379127#1"/>
    <trip id="veh29" type="veh_passenger" depart="253.62" departLane="best" departSpeed="max" from="1252704829" to="1173917946"/>
    <trip id="veh30" type="veh_passenger" depart="262.37" departLane="best" from="-1198952554#2" to="-101966424#1"/>
    <trip id="veh31" type="veh_passenger" depart="271.11" departLane="best" from="101966385#4" to="-1238263630#0"/>
    <trip id="veh32" type="veh_passenger" depart="279.86" departLane="best" departSpeed="max" from="-1178013884" to="52152345#1"/>
    <trip id="veh33" type="veh_passenger" depart="288.60" departLane="best" from="135461188#2" to="-52155750#2"/>
    <trip id="veh34" type="veh_passenger" depart="297.35" departLane="best" from="1124102295#0" to="101966443#13"/>
    <trip id="veh35" type="veh_passenger" depart="306.09" departLane="best" from="52152345#1" to="101972944"/>
    <trip id="veh36" type="veh_passenger" depart="314.84" departLane="best" from="103082310#3" to="-1199676458"/>
    <trip id="veh37" type="veh_passenger" depart="323.59" departLane="best" from="-103082316#1" to="1252704830"/>
    <trip id="veh38" type="veh_passenger" depart="332.33" departLane="best" departSpeed="max" from="101972902" to="-1124102301"/>
    <trip id="veh39" type="veh_passenger" depart="341.08" departLane="best" departSpeed="max" from="995140650" to="102690982#0"/>
    <trip id="veh40" type="veh_passenger" depart="349.82" departLane="best" from="-101966488#1" to="101966443#12"/>
    <trip id="veh41" type="veh_passenger" depart="358.57" departLane="best" from="101972917" to="1087118362#3"/>
    <trip id="veh42" type="veh_passenger" depart="367.31" departLane="best" departSpeed="max" from="-101966443#13" to="101966430#2"/>
    <trip id="veh43" type="veh_passenger" depart="376.06" departLane="best" departSpeed="max" from="995140650" to="102690997#4"/>
    <trip id="veh44" type="veh_passenger" depart="384.80" departLane="best" from="563022376#1" to="1198952555#1"/>
    <trip id="veh45" type="veh_passenger" depart="393.55" departLane="best" departSpeed="max" from="-101757288" to="1126837959"/>
    <trip id="veh46" type="veh_passenger" depart="402.30" departLane="best" from="-52155736#2" to="1124089269"/>
    <trip id="veh47" type="veh_passenger" depart="411.04" departLane="best" from="-101972944" to="101972892#1"/>
    <trip id="veh48" type="veh_passenger" depart="419.79" departLane="best" from="102688631#1" to="52155579#3"/>
    <trip id="veh49" type="veh_passenger" depart="428.53" departLane="best" from="135461188#2" to="-1199676458"/>
    <trip id="veh50" type="veh_passenger" depart="437.28" departLane="best" from="102961698#3" to="-103082310#0"/>
    <trip id="veh51" type="veh_passenger" depart="446.02" departLane="best" departSpeed="max" from="52152309#0" to="1199457540#0"/>
    <trip id="veh52" type="veh_passenger" depart="454.77" departLane="best" departSpeed="max" from="101757243" to="1124089268"/>
    <trip id="veh53" type="veh_passenger" depart="463.52" departLane="best" from="1087118362#3" to="-103050337"/>
    <trip id="veh54" type="veh_passenger" depart="472.26" departLane="best" from="1192799363#3" to="101966510#0"/>
    <trip id="veh55" type="veh_passenger" depart="481.01" departLane="best" from="1192800521" to="102690997#5"/>
    <trip id="veh56" type="veh_passenger" depart="489.75" departLane="best" from="-101757273#0" to="-771670219"/>
    <trip id="veh58" type="veh_passenger" depart="507.24" departLane="best" from="-101757312#1" to="101966443#9"/>
    <trip id="veh59" type="veh_passenger" depart="515.99" departLane="best" from="135461188#3" to="52152346#1"/>
    <trip id="veh60" type="veh_passenger" depart="524.73" departLane="best" from="-101966461" to="102688628#3"/>
    <trip id="veh61" type="veh_passenger" depart="533.48" departLane="best" from="-101966443#2" to="1137238825"/>
    <trip id="veh62" type="veh_passenger" depart="542.23" departLane="best" from="1192799363#4" to="102688629#5"/>
    <trip id="veh63" type="veh_passenger" depart="550.97" departLane="best" from="-52155736#0" to="1251129390#0"/>
    <trip id="veh64" type="veh_passenger" depart="559.72" departLane="best" from="-101972960#2" to="-111507856"/>
    <trip id="veh65" type="veh_passenger" depart="568.46" departLane="best" from="-101966443#4" to="-52155750#0"/>
    <trip id="veh66" type="veh_passenger" depart="577.21" departLane="best" from="102688628#4" to="102690983#1"/>
    <trip id="veh67" type="veh_passenger" depart="585.95" departLane="best" from="-101972960#1" to="-1178005070"/>
    <trip id="veh68" type="veh_passenger" depart="594.70" departLane="best" from="-101966443#10" to="103082314#3"/>
    <trip id="veh69" type="veh_passenger" depart="603.44" departLane="best" from="-1198952554#3" to="-1124102301"/>
    <trip id="veh70" type="veh_passenger" depart="612.19" departLane="best" from="-1198952554#2" to="1277600332#1"/>
    <trip id="veh71" type="veh_passenger" depart="620.94" departLane="best" from="1275573515" to="-101966462"/>
    <trip id="veh72" type="veh_passenger" depart="629.68" departLane="best" from="-1198952554#9" to="1124102296"/>
    <trip id="veh73" type="veh_passenger" depart="638.43" departLane="best" departSpeed="max" from="-1178016910" to="-102961724#1"/>
    <trip id="veh74" type="veh_passenger" depart="647.17" departLane="best" from="52155736#4" to="103050337"/>
    <trip id="veh75" type="veh_passenger" depart="655.92" departLane="best" from="102690983#4" to="1178005978#0"/>
    <trip id="veh76" type="veh_passenger" depart="664.66" departLane="best" from="1199457538#0" to="103082314#4"/>
    <trip id="veh77" type="veh_passenger" depart="673.41" departLane="best" from="-101966506#1" to="101966510#3"/>
    <trip id="veh78" type="veh_passenger" depart="682.15" departLane="best" from="-101972960#2" to="101972954#4"/>
    <trip id="veh79" type="veh_passenger" depart="690.90" departLane="best" from="-749341589#1" to="-101972898#3"/>
    <trip id="veh80" type="veh_passenger" depart="699.65" departLane="best" departSpeed="max" from="101972902" to="101757273#2"/>
    <trip id="veh81" type="veh_passenger" depart="708.39" departLane="best" from="1277600332#0" to="1198952554#9"/>
    <trip id="veh82" type="veh_passenger" depart="717.14" departLane="best" departSpeed="max" from="-1147855373" to="101972924#5"/>
    <trip id="veh83" type="veh_passenger" depart="725.88" departLane="best" from="-101972960#1" to="-1309211043"/>
    <trip id="veh84" type="veh_passenger" depart="734.63" departLane="best" from="-1199457539" to="27553246#0"/>
    <trip id="veh85" type="veh_passenger" depart="743.37" departLane="best" from="102688628#7" to="1198952555#2"/>
    <trip id="veh86" type="veh_passenger" depart="752.12" departLane="best" departSpeed="max" from="103082300" to="-101966443#4"/>
    <trip id="veh87" type="veh_passenger" depart="760.86" departLane="best" departSpeed="max" from="995140650" to="1192800521"/>
    <trip id="veh88" type="veh_passenger" depart="769.61" departLane="best" from="562694505#1" to="52087627#0"/>
    <trip id="veh89" type="veh_passenger" depart="778.36" departLane="best" departSpeed="max" from="1252704829" to="-103082300"/>
    <trip id="veh90" type="veh_passenger" depart="787.10" departLane="best" from="102691001#1" to="-111507856"/>
    <trip id="veh91" type="veh_passenger" depart="795.85" departLane="best" departSpeed="max" from="101972902" to="1124089275#0"/>
    <trip id="veh92" type="veh_passenger" depart="804.59" departLane="best" from="101966492" to="562694503#0"/>
    <trip id="veh93" type="veh_passenger" depart="813.34" departLane="best" from="-52155736#1" to="1178005978#0"/>
    <trip id="veh94" type="veh_passenger" depart="822.08" departLane="best" from="102688631#2" to="101966494"/>
    <trip id="veh95" type="veh_passenger" depart="830.83" departLane="best" from="103082309" to="1126641021"/>
    <trip id="veh96" type="veh_passenger" depart="839.57" departLane="best" from="562694505#1" to="103082310#2"/>
    <trip id="veh97" type="veh_passenger" depart="848.32" departLane="best" departSpeed="max" from="103079292" to="1132238887"/>
    <trip id="veh98" type="veh_passenger" depart="857.07" departLane="best" from="-101966443#1" to="103082314#0"/>
    <trip id="veh99" type="veh_passenger" depart="865.81" departLane="best" from="102961698#5" to="1198952554#5"/>
    <trip id="veh101" type="veh_passenger" depart="883.30" departLane="best" from="52087627#0" to="1198952554#7"/>
    <trip id="veh102" type="veh_passenger" depart="892.05" departLane="best" from="103082326#0" to="-1087118361#1"/>
    <trip id="veh103" type="veh_passenger" depart="900.79" departLane="best" departSpeed="max" from="103050326" to="52152302#4"/>
    <trip id="veh104" type="veh_passenger" depart="909.54" departLane="best" from="1178006786" to="1126641020#0"/>
    <trip id="veh105" type="veh_passenger" depart="918.28" departLane="best" from="-1198952554#9" to="101966443#13"/>
    <trip id="veh106" type="veh_passenger" depart="927.03" departLane="best" from="1124379127#1" to="-52155737#0"/>
    <trip id="veh107" type="veh_passenger" depart="935.78" departLane="best" from="101966385#4" to="1132238887"/>
    <trip id="veh108" type="veh_passenger" depart="944.52" departLane="best" departSpeed="max" from="995140650" to="749341589#0"/>
    <trip id="veh109" type="veh_passenger" depart="953.27" departLane="best" from="-101966443#5" to="-111507856"/>
    <trip id="veh110" type="veh_passenger" depart="962.01" departLane="best" from="-52155736#1" to="52152302#3"/>
    <trip id="veh111" type="veh_passenger" depart="970.76" departLane="best" departSpeed="max" from="219246285" to="1251129390#2"/>
    <trip id="veh112" type="veh_passenger" depart="979.50" departLane="best" departSpeed="max" from="101966481" to="-103079292"/>
    <trip id="veh113" type="veh_passenger" depart="988.25" departLane="best" from="1251129390#1" to="1126518490#2"/>
    <trip id="veh114" type="veh_passenger" depart="996.99" departLane="best" from="1087118362#5" to="562694503#1"/>
    <trip id="veh115" type="veh_passenger" depart="1005.74" departLane="best" from="-1124089277#0" to="101757273#0"/>
    <trip id="veh116" type="veh_passenger" depart="1014.49" departLane="best" departSpeed="max" from="1199676458" to="-52155736#4"/>
    <trip id="veh117" type="veh_passenger" depart="1023.23" departLane="best" from="1124105437" to="52152302#7"/>
    <trip id="veh118" type="veh_passenger" depart="1031.98" departLane="best" from="-101972898#3" to="102961698#7"/>
    <trip id="veh119" type="veh_passenger" depart="1040.72" departLane="best" from="1128043714#1" to="-103082326#1"/>
    <trip id="veh120" type="veh_passenger" depart="1049.47" departLane="best" from="1124089271" to="-1199676458"/>
    <trip id="veh121" type="veh_passenger" depart="1058.21" departLane="best" from="102784452#1" to="1277600332#1"/>
    <trip id="veh122" type="veh_passenger" depart="1066.96" departLane="best" departSpeed="max" from="1252704829" to="-101972892#0"/>
    <trip id="veh123" type="veh_passenger" depart="1075.70" departLane="best" from="-101972960#2" to="1275573515"/>
    <trip id="veh124" type="veh_passenger" depart="1084.45" departLane="best" from="1124089272#1" to="-1199676458"/>
    <trip id="veh125" type="veh_passenger" depart="1093.20" departLane="best" from="102688627#2" to="101757302#0"/>
    <trip id="veh126" type="veh_passenger" depart="1101.94" departLane="best" from="-101966443#6" to="1251129391"/>
    <trip id="veh127" type="veh_passenger" depart="1110.69" departLane="best" from="52152302#7" to="102961698#1"/>
    <trip id="veh128" type="veh_passenger" depart="1119.43" departLane="best" from="1251129390#2" to="103082312"/>
    <trip id="veh129" type="veh_passenger" depart="1128.18" departLane="best" from="103050337" to="102688629#4"/>
    <trip id="veh130" type="veh_passenger" depart="1136.92" departLane="best" from="101757321" to="1252704830"/>
    <trip id="veh131" type="veh_passenger" depart="1145.67" departLane="best" from="-1198952554#6" to="1198952555#1"/>
    <trip id="veh132" type="veh_passenger" depart="1154.41" departLane="best" from="52152302#3" to="-111507856"/>
    <trip id="veh133" type="veh_passenger" depart="1163.16" departLane="best" from="1199457539" to="-101972902"/>
    <trip id="veh134" type="veh_passenger" depart="1171.91" departLane="best" from="1192800521" to="1251129391"/>
    <trip id="veh135" type="veh_passenger" depart="1180.65" departLane="best" from="-101972912" to="-1087118361#2"/>
    <trip id="veh136" type="veh_passenger" depart="1189.40" departLane="best" from="103082310#0" to="52152219#1"/>
    <trip id="veh137" type="veh_passenger" depart="1198.14" departLane="best" from="1287656128" to="52155745#1"/>
    <trip id="veh138" type="veh_passenger" depart="1206.89" departLane="best" departSpeed="max" from="-101757302#2" to="1128043714#2"/>
    <trip id="veh139" type="veh_passenger" depart="1215.63" departLane="best" from="101966430#2" to="52152302#1"/>
    <trip id="veh140" type="veh_passenger" depart="1224.38" departLane="best" from="1198952555#0" to="1199457538#0"/>
    <trip id="veh141" type="veh_passenger" depart="1233.13" departLane="best" from="1199457538#2" to="-1199676458"/>
    <trip id="veh142" type="veh_passenger" depart="1241.87" departLane="best" from="1198952554#0" to="-101972917"/>
    <trip id="veh143" type="veh_passenger" depart="1250.62" departLane="best" from="103082310#2" to="1124379127#0"/>
    <trip id="veh144" type="veh_passenger" depart="1259.36" departLane="best" from="102690982#0" to="-52155743#2"/>
    <trip id="veh145" type="veh_passenger" depart="1268.11" departLane="best" from="-1198952554#5" to="-1178006786"/>
    <trip id="veh146" type="veh_passenger" depart="1276.85" departLane="best" departSpeed="max" from="-101757302#2" to="103082314#6"/>
    <trip id="veh147" type="veh_passenger" depart="1285.60" departLane="best" from="101966427" to="1199457538#0"/>
    <trip id="veh148" type="veh_passenger" depart="1294.34" departLane="best" departSpeed="max" from="562694505#0" to="-1309211043"/>
    <trip id="veh149" type="veh_passenger" depart="1303.09" departLane="best" from="1124089273" to="101966443#3"/>
    <trip id="veh150" type="veh_passenger" depart="1311.84" departLane="best" from="749310218" to="102784452#1"/>
    <trip id="veh151" type="veh_passenger" depart="1320.58" departLane="best" from="52155743#0" to="-101972954#4"/>
    <trip id="veh152" type="veh_passenger" depart="1329.33" departLane="best" from="563022376#0" to="-103082310#0"/>
    <trip id="veh153" type="veh_passenger" depart="1338.07" departLane="best" departSpeed="max" from="562694505#0" to="-1199676458"/>
    <trip id="veh154" type="veh_passenger" depart="1346.82" departLane="best" from="1132632802#0" to="-52155750#2"/>
    <trip id="veh155" type="veh_passenger" depart="1355.56" departLane="best" from="1087118362#10" to="102690982#2"/>
    <trip id="veh156" type="veh_passenger" depart="1364.31" departLane="best" from="101966510#0" to="-103082310#0"/>
    <trip id="veh157" type="veh_passenger" depart="1373.05" departLane="best" from="-1309211043" to="1126633510#0-AddedOnRampEdge"/>
    <trip id="veh158" type="veh_passenger" depart="1381.80" departLane="best" from="-101757273#1" to="52087627#0"/>
    <trip id="veh159" type="veh_passenger" depart="1390.55" departLane="best" from="-103050337" to="1126837959"/>
    <trip id="veh161" type="veh_passenger" depart="1408.04" departLane="best" from="1124105437" to="-995140650"/>
    <trip id="veh162" type="veh_passenger" depart="1416.78" departLane="best" from="101966385#3" to="1198952554#2"/>
    <trip id="veh163" type="veh_passenger" depart="1425.53" departLane="best" from="1130603776#0" to="-52155737#0"/>
    <trip id="veh164" type="veh_passenger" depart="1434.27" departLane="best" from="101757321" to="101966443#9"/>
    <trip id="veh165" type="veh_passenger" depart="1443.02" departLane="best" from="102688629#3" to="-101966488#2"/>
    <trip id="veh166" type="veh_passenger" depart="1451.76" departLane="best" from="52152302#6" to="103082326#1"/>
    <trip id="veh167" type="veh_passenger" depart="1460.51" departLane="best" from="-101757273#0" to="102961698#3"/>
    <trip id="veh168" type="veh_passenger" depart="1469.26" departLane="best" from="-101757273#0" to="-52155576#0"/>
    <trip id="veh169" type="veh_passenger" depart="1478.00" departLane="best" from="1124102295#0" to="101972954#2"/>
    <trip id="veh170" type="veh_passenger" depart="1486.75" departLane="best" from="102688628#7" to="-111507856"/>
    <trip id="veh171" type="veh_passenger" depart="1495.49" departLane="best" from="102690983#4" to="1275560131"/>
    <trip id="veh172" type="veh_passenger" depart="1504.24" departLane="best" from="1124089270" to="-995140650"/>
    <trip id="veh173" type="veh_passenger" depart="1512.98" departLane="best" departSpeed="max" from="1199676458" to="1132238887"/>
    <trip id="veh174" type="veh_passenger" depart="1521.73" departLane="best" from="-1178005070" to="-101966393#0"/>
    <trip id="veh175" type="veh_passenger" depart="1530.47" departLane="best" departSpeed="max" from="1252704829" to="-101966481"/>
    <trip id="veh176" type="veh_passenger" depart="1539.22" departLane="best" from="101972954#1" to="1087118362#5"/>
    <trip id="veh177" type="veh_passenger" depart="1547.97" departLane="best" departSpeed="max" from="-1173917946" to="1126475660"/>
    <trip id="veh178" type="veh_passenger" depart="1556.71" departLane="best" from="102784452#5" to="1198952554#6"/>
    <trip id="veh179" type="veh_passenger" depart="1565.46" departLane="best" from="1124102295#0" to="-101757243"/>
    <trip id="veh180" type="veh_passenger" depart="1574.20" departLane="best" from="1192799361" to="1173597755#0"/>
    <trip id="veh181" type="veh_passenger" depart="1582.95" departLane="best" from="-103082324" to="52155735#1"/>
    <trip id="veh182" type="veh_passenger" depart="1591.69" departLane="best" departSpeed="max" from="103050326" to="-101966443#3"/>
    <trip id="veh183" type="veh_passenger" depart="1600.44" departLane="best" from="1199457539" to="1198952554#2"/>
    <trip id="veh184" type="veh_passenger" depart="1609.18" departLane="best" from="102688631#3" to="1178016910"/>
    <trip id="veh185" type="veh_passenger" depart="1617.93" departLane="best" from="1124379125" to="562694504"/>
    <trip id="veh186" type="veh_passenger" depart="1626.68" departLane="best" from="52087627#2" to="103082324"/>
    <trip id="veh187" type="veh_passenger" depart="1635.42" departLane="best" from="1128043714#2" to="102688631#3"/>
    <trip id="veh188" type="veh_passenger" depart="1644.17" departLane="best" from="1124089275#2" to="102961698#3"/>
    <trip id="veh189" type="veh_passenger" depart="1652.91" departLane="best" from="52152302#2" to="1130603776#2"/>
    <trip id="veh190" type="veh_passenger" depart="1661.66" departLane="best" from="102690992" to="-1199457539"/>
    <trip id="veh191" type="veh_passenger" depart="1670.40" departLane="best" from="-1199457538#2" to="1124089268"/>
    <trip id="veh192" type="veh_passenger" depart="1679.15" departLane="best" from="1192799363#4" to="102690983#4"/>
    <trip id="veh193" type="veh_passenger" depart="1687.89" departLane="best" from="1124089268" to="-1275560130"/>
    <trip id="veh194" type="veh_passenger" depart="1696.64" departLane="best" from="-101966443#8" to="-52152309#0"/>
    <trip id="veh195" type="veh_passenger" depart="1705.39" departLane="best" from="-52155737#1" to="-562694503#1"/>
    <trip id="veh196" type="veh_passenger" depart="1714.13" departLane="best" departSpeed="max" from="103079292" to="-103050320"/>
    <trip id="veh197" type="veh_passenger" depart="1722.88" departLane="best" from="-1198952554#4" to="1126475660"/>
    <trip id="veh198" type="veh_passenger" depart="1731.62" departLane="best" from="101972917" to="102784452#6"/>
    <trip id="veh199" type="veh_passenger" depart="1740.37" departLane="best" from="101972954#2" to="-1087118361#2"/>
    <trip id="veh200" type="veh_passenger" depart="1749.11" departLane="best" from="-101972960#0" to="1277600332#1"/>
    <trip id="veh201" type="veh_passenger" depart="1757.86" departLane="best" from="-103082314#9" to="1126475660"/>
    <trip id="veh202" type="veh_passenger" depart="1766.60" departLane="best" from="1275560130" to="1147855373"/>
    <trip id="veh203" type="veh_passenger" depart="1775.35" departLane="best" from="-101966443#9" to="1132632802#1"/>
    <trip id="veh204" type="veh_passenger" depart="1784.10" departLane="best" departSpeed="max" from="1252704829" to="52155579#2"/>
    <trip id="veh205" type="veh_passenger" depart="1792.84" departLane="best" from="-101972956" to="1132238887"/>
    <trip id="veh206" type="veh_passenger" depart="1801.59" departLane="best" from="103082294" to="103082317#3"/>
    <trip id="veh207" type="veh_passenger" depart="1810.33" departLane="best" from="102688628#2" to="-101966397"/>
    <trip id="veh208" type="veh_passenger" depart="1819.08" departLane="best" from="-101966443#1" to="1124379125"/>
    <trip id="veh209" type="veh_passenger" depart="1827.82" departLane="best" from="102690983#0" to="102688629#4"/>
    <trip id="veh211" type="veh_passenger" depart="1845.31" departLane="best" from="1196283316" to="1124089269"/>
    <trip id="veh212" type="veh_passenger" depart="1854.06" departLane="best" departSpeed="max" from="-1178013884" to="-771670219"/>
    <trip id="veh213" type="veh_passenger" depart="1862.81" departLane="best" from="1192799363#3" to="-101966430#0"/>
    <trip id="veh214" type="veh_passenger" depart="1871.55" departLane="best" from="-1275560131" to="101966488#1"/>
    <trip id="veh215" type="veh_passenger" depart="1880.30" departLane="best" departSpeed="max" from="-101757302#2" to="102784452#3"/>
    <trip id="veh216" type="veh_passenger" depart="1889.04" departLane="best" departSpeed="max" from="995140650" to="101757288"/>
    <trip id="veh217" type="veh_passenger" depart="1897.79" departLane="best" from="1124089275#1" to="1173917946"/>
    <trip id="veh218" type="veh_passenger" depart="1906.53" departLane="best" from="1124089275#2" to="1132632802#1"/>
    <trip id="veh219" type="veh_passenger" depart="1915.28" departLane="best" from="52155745#2" to="-103082323#0"/>
    <trip id="veh220" type="veh_passenger" depart="1924.02" departLane="best" departSpeed="max" from="-101757302#2" to="-103050330#4"/>
    <trip id="veh221" type="veh_passenger" depart="1932.77" departLane="best" from="102688629#2" to="1124102296"/>
    <trip id="veh222" type="veh_passenger" depart="1941.52" departLane="best" departSpeed="max" from="103082313" to="-1124102301"/>
    <trip id="veh223" type="veh_passenger" depart="1950.26" departLane="best" from="1126641020#1" to="1147855373"/>
    <trip id="veh224" type="veh_passenger" depart="1959.01" departLane="best" from="-103082314#6" to="103082317#3"/>
    <trip id="veh225" type="veh_passenger" depart="1967.75" departLane="best" from="1178018200#1" to="-101972954#4"/>
    <trip id="veh226" type="veh_passenger" depart="1976.50" departLane="best" departSpeed="max" from="1199676458" to="-52155737#0"/>
    <trip id="veh227" type="veh_passenger" depart="1985.24" departLane="best" from="-101972912" to="-101966393#1"/>
    <trip id="veh228" type="veh_passenger" depart="1993.99" departLane="best" from="101966385#0" to="1124379125"/>
    <trip id="veh229" type="veh_passenger" depart="2002.74" departLane="best" from="562694503#0" to="101966443#13"/>
    <trip id="veh230" type="veh_passenger" depart="2011.48" departLane="best" from="103082298" to="-101966481"/>
    <trip id="veh231" type="veh_passenger" depart="2020.23" departLane="best" from="1126633510#0-AddedOnRampEdge" to="1087118362#3"/>
    <trip id="veh232" type="veh_passenger" depart="2028.97" departLane="best" from="101972892#1" to="1173597755#3"/>
    <trip id="veh233" type="veh_passenger" depart="2037.72" departLane="best" from="-101972960#1" to="-52155752#1"/>
    <trip id="veh234" type="veh_passenger" depart="2046.46" departLane="best" from="1196271501#1" to="101757288"/>
    <trip id="veh235" type="veh_passenger" depart="2055.21" departLane="best" from="102688627#3" to="101966393#1"/>