<net xmlns:xsi="http://www.w3.org/2001/XMLSchema-instance" version="1.20" junctionCornerDetail="5" lefthand="true" limitTurnSpeed="5.50" xsi:noNamespaceSchemaLocation="http://sumo.dlr.de/xsd/net_file.xsd">

    <location netOffset="-638506.65,-2495961.42" convBoundary="0.00,-0.00,1320.94,1215.06" origBoundary="88.347174,22.564674,88.360027,22.575595" projParameter="+proj=utm +zone=45 +ellps=WGS84 +datum=WGS84 +units=m +no_defs" />

    <type id="highway.footway" priority="1" numLanes="1" speed="2.78" allow="pedestrian" oneway="1" width="2.00" />
    <type id="highway.living_street" priority="2" numLanes="1" speed="2.78" disallow="tram rail_urban rail rail_electric rail_fast ship container cable_car subway aircraft wheelchair scooter drone" oneway="0" />
    <type id="highway.primary" priority="12" numLanes="2" speed="27.78" disallow="tram rail_urban rail rail_electric rail_fast ship container cable_car subway aircraft wheelchair scooter drone" oneway="0" />
    <type id="highway.residential" priority="3" numLanes="1" speed="13.89" disallow="tram rail_urban rail rail_electric rail_fast ship container cable_car subway aircraft wheelchair scooter drone" oneway="0" />
    <type id="highway.secondary" priority="11" numLanes="1" speed="27.78" disallow="tram rail_urban rail rail_electric rail_fast ship container cable_car subway aircraft wheelchair scooter drone" oneway="0" />
    <type id="highway.service" priority="1" numLanes="1" speed="5.56" allow="pedestrian delivery bicycle" oneway="0" />
    <type id="highway.tertiary" priority="10" numLanes="1" speed="22.22" disallow="tram rail_urban rail rail_electric rail_fast ship container cable_car subway aircraft wheelchair scooter drone" oneway="0" />
    <type id="highway.track" priority="1" numLanes="1" speed="5.56" allow="pedestrian motorcycle moped bicycle" oneway="0" />
    <type id="railway.subway" priority="18" numLanes="1" speed="27.78" allow="subway" oneway="1" />
    <type id="railway.tram" priority="17" numLanes="1" speed="13.89" allow="tram" oneway="1" />

    <edge id=":10279701136_0" function="internal">
        <lane id=":10279701136_0_0" index="0" disallow="tram rail_urban rail rail_electric rail_fast ship container cable_car subway aircraft wheelchair scooter drone" speed="11.62" length="3.64" shape="477.62,144.09 478.30,144.93 478.71,145.55 479.00,146.23 479.31,147.27" />
    </edge>
    <edge id=":10279701136_1" function="internal">
        <lane id=":10279701136_1_0" index="0" disallow="tram rail_urban rail rail_electric rail_fast ship container cable_car subway aircraft wheelchair scooter drone" speed="27.78" length="3.66" shape="480.07,142.04 480.84,142.94 481.39,143.53 482.00,144.07 482.92,144.81" />
        <lane id=":10279701136_1_1" index="1" disallow="tram rail_urban rail rail_electric rail_fast ship container cable_car subway aircraft wheelchair scooter drone" speed="27.78" length="3.66" shape="482.53,139.98 483.16,140.74 483.63,141.23 484.13,141.68 484.91,142.30" />
    </edge>
    <edge id=":10279701147_0" function="internal">
        <lane id=":10279701147_0_0" index="0" disallow="tram rail_urban rail rail_electric rail_fast ship container cable_car subway aircraft wheelchair scooter drone" speed="7.03" length="9.69" shape="1047.24,473.61 1050.01,473.51 1052.21,474.18 1053.83,475.62 1054.88,477.83" />
    </edge>
    <edge id=":10279701147_1" function="internal">
        <lane id=":10279701147_1_0" index="0" disallow="tram rail_urban rail rail_electric rail_fast ship container cable_car subway aircraft wheelchair scooter drone" speed="3.65" length="4.67" shape="1047.24,473.61 1048.30,472.63 1048.57,471.78 1048.05,471.05 1046.74,470.45" />
    </edge>
    <edge id=":10279701147_2" function="internal">
        <lane id=":10279701147_2_0" index="0" disallow="tram rail_urban rail rail_electric rail_fast ship container cable_car subway aircraft wheelchair scooter drone" speed="6.26" length="9.04" shape="1050.89,463.96 1051.22,466.46 1050.64,468.37 1049.15,469.70 1046.74,470.45" />
    </edge>
    <edge id=":10279701147_3" function="internal">
        <lane id=":10279701147_3_0" index="0" disallow="tram rail_urban rail rail_electric rail_fast ship container cable_car subway aircraft wheelchair scooter drone" speed="27.78" length="14.43" shape="1050.89,463.96 1054.88,477.83" />
        <lane id=":10279701147_3_1" index="1" disallow="tram rail_urban rail rail_electric rail_fast ship container cable_car subway aircraft wheelchair scooter drone" speed="27.78" length="14.43" shape="1053.96,463.08 1057.95,476.94" />
    </edge>
    <edge id=":10279701149_0" function="internal">
        <lane id=":10279701149_0_0" index="0" disallow="tram rail_urban rail rail_electric rail_fast ship container cable_car subway aircraft wheelchair scooter drone" speed="11.11" length="1.20" width="5.00" shape="1249.60,31.58 1248.40,31.51" />
    </edge>
    <edge id=":10279701149_1" function="internal">
        <lane id=":10279701149_1_0" index="0" disallow="tram rail_urban rail rail_electric rail_fast ship container cable_car subway aircraft wheelchair scooter drone" speed="11.11" length="1.20" shape="1251.95,35.03 1251.87,33.83" />
    </edge>
    <edge id=":10279761589_0" function="internal">
        <lane id=":10279761589_0_0" index="0" allow="pedestrian delivery bicycle" speed="5.56" length="6.28" shape="254.81,568.76 248.86,570.78" />
    </edge>
    <edge id=":10279761589_1" function="internal">
        <lane id=":10279761589_1_0" index="0" allow="pedestrian delivery bicycle" speed="6.15" length="7.91" shape="254.81,568.76 253.57,569.62 252.98,571.09 253.04,573.15 253.75,575.82" />
    </edge>
    <edge id=":10279761589_2" function="internal">
        <lane id=":10279761589_2_0" index="0" allow="pedestrian delivery bicycle" speed="3.65" length="4.67" shape="254.81,568.76 253.96,569.92 253.85,570.81 254.50,571.43 255.90,571.77" />
    </edge>
    <edge id=":10279761589_3" function="internal">
        <lane id=":10279761589_3_0" index="0" allow="pedestrian delivery bicycle" speed="5.08" length="4.99" shape="249.83,573.83 251.16,573.61 252.26,573.87 253.13,574.60 253.75,575.82" />
    </edge>
    <edge id=":10279761589_4" function="internal">
        <lane id=":10279761589_4_0" index="0" allow="pedestrian delivery bicycle" speed="5.56" length="6.42" shape="249.83,573.83 255.90,571.77" />
    </edge>
    <edge id=":10279761589_5" function="internal">
        <lane id=":10279761589_5_0" index="0" allow="pedestrian delivery bicycle" speed="3.65" length="4.67" shape="249.83,573.83 250.73,572.71 250.87,571.82 250.25,571.18 248.86,570.78" />
    </edge>
    <edge id=":10279761589_6" function="internal">
        <lane id=":10279761589_6_0" index="0" allow="pedestrian delivery bicycle" speed="5.15" length="5.12" shape="250.91,566.75 251.10,568.17 250.83,569.31 250.08,570.18 248.86,570.78" />
    </edge>
    <edge id=":10279761589_7" function="internal">
        <lane id=":10279761589_7_0" index="0" disallow="tram rail_urban rail rail_electric rail_fast ship container cable_car subway aircraft wheelchair scooter drone" speed="27.78" length="9.50" shape="250.91,566.75 253.75,575.82" />
    </edge>
    <edge id=":10279761589_8" function="internal">
        <lane id=":10279761589_8_0" index="0" allow="pedestrian delivery bicycle" speed="6.02" length="7.97" shape="250.91,566.75 251.87,569.38 253.02,571.10 254.37,571.89 255.90,571.77" />
    </edge>
    <edge id=":10279761590_0" function="internal">
        <lane id=":10279761590_0_0" index="0" allow="pedestrian delivery bicycle" speed="5.56" length="6.21" shape="242.72,526.57 236.79,528.40" />
    </edge>
    <edge id=":10279761590_1" function="internal">
        <lane id=":10279761590_1_0" index="0" allow="pedestrian delivery bicycle" speed="6.14" length="7.76" shape="242.72,526.57 241.58,527.34 241.01,528.76 241.01,530.83 241.59,533.55" />
    </edge>
    <edge id=":10279761590_2" function="internal">
        <lane id=":10279761590_2_0" index="0" allow="pedestrian delivery bicycle" speed="3.65" length="4.67" shape="242.72,526.57 241.81,527.69 241.67,528.57 242.28,529.22 243.67,529.63" />
    </edge>
    <edge id=":10279761590_3" function="internal">
        <lane id=":10279761590_3_0" index="0" allow="pedestrian delivery bicycle" speed="5.01" length="5.04" shape="237.73,531.46 239.10,531.24 240.19,531.52 241.02,532.29 241.59,533.55" />
    </edge>
    <edge id=":10279761590_4" function="internal">
        <lane id=":10279761590_4_0" index="0" allow="pedestrian delivery bicycle" speed="5.56" length="6.22" shape="237.73,531.46 243.67,529.63" />
    </edge>
    <edge id=":10279761590_5" function="internal">
        <lane id=":10279761590_5_0" index="0" allow="pedestrian delivery bicycle" speed="3.65" length="4.67" shape="237.73,531.46 238.64,530.35 238.79,529.46 238.17,528.82 236.79,528.40" />
    </edge>
    <edge id=":10279761590_6" function="internal">
        <lane id=":10279761590_6_0" index="0" allow="pedestrian delivery bicycle" speed="5.02" length="5.03" shape="238.80,524.50 239.05,525.85 238.80,526.96 238.04,527.81 236.79,528.40" />
    </edge>
    <edge id=":10279761590_7" function="internal">
        <lane id=":10279761590_7_0" index="0" disallow="tram rail_urban rail rail_electric rail_fast ship container cable_car subway aircraft wheelchair scooter drone" speed="27.78" length="9.48" shape="238.80,524.50 241.59,533.55" />
    </edge>
    <edge id=":10279761590_8" function="internal">
        <lane id=":10279761590_8_0" index="0" allow="pedestrian delivery bicycle" speed="6.13" length="7.76" shape="238.80,524.50 239.86,527.07 241.02,528.79 242.29,529.64 243.67,529.63" />
    </edge>
    <edge id=":10279761591_0" function="internal">
        <lane id=":10279761591_0_0" index="0" allow="pedestrian delivery bicycle" speed="5.49" length="5.53" shape="219.96,479.68 221.61,479.54 222.92,479.83 223.89,480.56 224.52,481.72" />
    </edge>
    <edge id=":10279761591_1" function="internal">
        <lane id=":10279761591_1_0" index="0" allow="pedestrian delivery bicycle" speed="3.65" length="4.67" shape="219.96,479.68 220.99,478.67 221.23,477.81 220.69,477.10 219.36,476.54" />
    </edge>
    <edge id=":10279761591_2" function="internal">
        <lane id=":10279761591_2_0" index="0" allow="pedestrian delivery bicycle" speed="4.93" length="5.15" shape="221.59,472.76 221.83,474.17 221.54,475.27 220.71,476.06 219.36,476.54" />
    </edge>
    <edge id=":10279761591_3" function="internal">
        <lane id=":10279761591_3_0" index="0" disallow="tram rail_urban rail rail_electric rail_fast ship container cable_car subway aircraft wheelchair scooter drone" speed="27.78" length="9.43" shape="221.59,472.76 224.52,481.72" />
    </edge>
    <edge id=":10279761593_0" function="internal">
        <lane id=":10279761593_0_0" index="0" allow="pedestrian delivery bicycle" speed="5.56" length="6.50" shape="169.24,297.82 163.16,300.12" />
    </edge>
    <edge id=":10279761593_1" function="internal">
        <lane id=":10279761593_1_0" index="0" allow="pedestrian delivery bicycle" speed="6.28" length="7.97" shape="169.24,297.82 168.08,298.69 167.53,300.18 167.58,302.29 168.23,305.03" />
    </edge>
    <edge id=":10279761593_2" function="internal">
        <lane id=":10279761593_2_0" index="0" allow="pedestrian delivery bicycle" speed="3.65" length="4.67" shape="169.24,297.82 168.40,299.00 168.31,299.89 168.96,300.49 170.37,300.82" />
    </edge>
    <edge id=":10279761593_3" function="internal">
        <lane id=":10279761593_3_0" index="0" allow="pedestrian delivery bicycle" speed="4.98" length="5.07" shape="164.29,303.12 165.66,302.81 166.77,303.03 167.63,303.77 168.23,305.03" />
    </edge>
    <edge id=":10279761593_4" function="internal">
        <lane id=":10279761593_4_0" index="0" allow="pedestrian delivery bicycle" speed="5.56" length="6.50" shape="164.29,303.12 170.37,300.82" />
    </edge>
    <edge id=":10279761593_5" function="internal">
        <lane id=":10279761593_5_0" index="0" allow="pedestrian delivery bicycle" speed="3.65" length="4.67" shape="164.29,303.12 165.13,301.94 165.22,301.05 164.56,300.45 163.16,300.12" />
    </edge>
    <edge id=":10279761593_6" function="internal">
        <lane id=":10279761593_6_0" index="0" allow="pedestrian delivery bicycle" speed="5.22" length="5.29" shape="165.27,295.95 165.52,297.33 165.25,298.49 164.46,299.42 163.16,300.12" />
    </edge>
    <edge id=":10279761593_7" function="internal">
        <lane id=":10279761593_7_0" index="0" disallow="tram rail_urban rail rail_electric rail_fast ship container cable_car subway aircraft wheelchair scooter drone" speed="27.78" length="9.56" shape="165.27,295.95 168.23,305.03" />
    </edge>
    <edge id=":10279761593_8" function="internal">
        <lane id=":10279761593_8_0" index="0" allow="pedestrian delivery bicycle" speed="6.04" length="7.86" shape="165.27,295.95 166.36,298.51 167.57,300.18 168.90,300.95 170.37,300.82" />
    </edge>
    <edge id=":10279819094_0" function="internal">
        <lane id=":10279819094_0_0" index="0" disallow="tram rail_urban rail rail_electric rail_fast ship container cable_car subway aircraft wheelchair scooter drone" speed="19.45" length="0.34" shape="74.93,35.82 74.98,35.91 75.02,35.97 75.04,36.04 75.08,36.13" />
    </edge>
    <edge id=":10281958924_0" function="internal">
        <lane id=":10281958924_0_0" index="0" allow="pedestrian delivery bicycle" speed="5.23" length="5.23" shape="1136.43,765.76 1137.92,765.60 1139.11,765.89 1140.00,766.64 1140.58,767.86" />
    </edge>
    <edge id=":10281958924_1" function="internal">
        <lane id=":10281958924_1_0" index="0" allow="pedestrian delivery bicycle" speed="3.65" length="4.67" shape="1136.43,765.76 1137.41,764.70 1137.61,763.83 1137.04,763.15 1135.68,762.65" />
    </edge>
    <edge id=":10281958924_2" function="internal">
        <lane id=":10281958924_2_0" index="0" allow="pedestrian delivery bicycle" speed="4.98" length="5.07" shape="1137.86,758.85 1138.07,760.23 1137.78,761.33 1136.98,762.13 1135.68,762.65" />
    </edge>
    <edge id=":10281958924_3" function="internal">
        <lane id=":10281958924_3_0" index="0" disallow="tram rail_urban rail rail_electric rail_fast ship container cable_car subway aircraft wheelchair scooter drone" speed="16.67" length="9.41" shape="1137.86,758.85 1140.58,767.86" />
        <lane id=":10281958924_3_1" index="1" disallow="tram rail_urban rail rail_electric rail_fast ship container cable_car subway aircraft wheelchair scooter drone" speed="16.67" length="9.41" shape="1140.93,757.92 1143.64,766.93" />
    </edge>
    <edge id=":10281958927_0" function="internal">
        <lane id=":10281958927_0_0" index="0" disallow="tram rail_urban rail rail_electric rail_fast ship container cable_car subway aircraft wheelchair scooter drone" speed="6.43" length="9.03" shape="1189.10,939.79 1191.55,939.33 1193.53,939.77 1195.04,941.12 1196.09,943.38" />
    </edge>
    <edge id=":10281958927_1" function="internal">
        <lane id=":10281958927_1_0" index="0" disallow="tram rail_urban rail rail_electric rail_fast ship container cable_car subway aircraft wheelchair scooter drone" speed="3.65" length="4.67" shape="1189.10,939.79 1189.98,938.65 1190.10,937.76 1189.46,937.13 1188.06,936.77" />
    </edge>
    <edge id=":10281958927_2" function="internal">
        <lane id=":10281958927_2_0" index="0" disallow="tram rail_urban rail rail_electric rail_fast ship container cable_car subway aircraft wheelchair scooter drone" speed="6.56" length="9.15" shape="1191.72,929.61 1192.16,932.04 1191.69,934.05 1190.33,935.62 1188.06,936.77" />
    </edge>
    <edge id=":10281958927_3" function="internal">
        <lane id=":10281958927_3_0" index="0" disallow="tram rail_urban rail rail_electric rail_fast ship container cable_car subway aircraft wheelchair scooter drone" speed="16.67" length="14.50" shape="1191.72,929.61 1196.09,943.38" />
        <lane id=":10281958927_3_1" index="1" disallow="tram rail_urban rail rail_electric rail_fast ship container cable_car subway aircraft wheelchair scooter drone" speed="16.67" length="14.50" shape="1194.76,928.59 1199.15,942.46" />
    </edge>
    <edge id=":10281958928_0" function="internal">
        <lane id=":10281958928_0_0" index="0" disallow="tram rail_urban rail rail_electric rail_fast ship container cable_car subway aircraft wheelchair scooter drone" speed="6.98" length="9.68" shape="1213.15,1021.63 1215.93,1021.53 1218.12,1022.20 1219.72,1023.65 1220.73,1025.88" />
    </edge>
    <edge id=":10281958928_1" function="internal">
        <lane id=":10281958928_1_0" index="0" disallow="tram rail_urban rail rail_electric rail_fast ship container cable_car subway aircraft wheelchair scooter drone" speed="3.65" length="4.67" shape="1213.15,1021.63 1214.21,1020.65 1214.48,1019.80 1213.96,1019.07 1212.64,1018.47" />
    </edge>
    <edge id=":10281958928_2" function="internal">
        <lane id=":10281958928_2_0" index="0" disallow="tram rail_urban rail rail_electric rail_fast ship container cable_car subway aircraft wheelchair scooter drone" speed="6.24" length="9.05" shape="1216.72,1011.96 1217.09,1014.46 1216.54,1016.38 1215.06,1017.72 1212.64,1018.47" />
    </edge>
    <edge id=":10281958928_3" function="internal">
        <lane id=":10281958928_3_0" index="0" disallow="tram rail_urban rail rail_electric rail_fast ship container cable_car subway aircraft wheelchair scooter drone" speed="16.67" length="14.53" shape="1216.72,1011.96 1220.73,1025.88" />
        <lane id=":10281958928_3_1" index="1" disallow="tram rail_urban rail rail_electric rail_fast ship container cable_car subway aircraft wheelchair scooter drone" speed="16.67" length="14.53" shape="1219.78,1011.04 1223.81,1025.04" />
    </edge>
    <edge id=":10281958930_0" function="internal">
        <lane id=":10281958930_0_0" index="0" disallow="tram rail_urban rail rail_electric rail_fast ship container cable_car subway aircraft wheelchair scooter drone" speed="7.60" length="10.35" shape="1229.01,1080.16 1232.07,1080.35 1234.47,1081.20 1236.20,1082.72 1237.27,1084.90" />
    </edge>
    <edge id=":10281958930_1" function="internal">
        <lane id=":10281958930_1_0" index="0" disallow="tram rail_urban rail rail_electric rail_fast ship container cable_car subway aircraft wheelchair scooter drone" speed="3.65" length="4.67" shape="1229.01,1080.16 1230.18,1079.31 1230.54,1078.49 1230.11,1077.71 1228.87,1076.96" />
    </edge>
    <edge id=":10281958930_2" function="internal">
        <lane id=":10281958930_2_0" index="0" disallow="tram rail_urban rail rail_electric rail_fast ship container cable_car subway aircraft wheelchair scooter drone" speed="6.07" length="9.07" shape="1233.25,1070.91 1233.59,1073.46 1232.97,1075.32 1231.40,1076.49 1228.87,1076.96" />
    </edge>
    <edge id=":10281958930_3" function="internal">
        <lane id=":10281958930_3_0" index="0" disallow="tram rail_urban rail rail_electric rail_fast ship container cable_car subway aircraft wheelchair scooter drone" speed="16.67" length="14.55" shape="1233.25,1070.91 1237.27,1084.90" />
        <lane id=":10281958930_3_1" index="1" disallow="tram rail_urban rail rail_electric rail_fast ship container cable_car subway aircraft wheelchair scooter drone" speed="16.67" length="14.55" shape="1236.33,1070.04 1240.34,1084.00" />
    </edge>
    <edge id=":10281958931_0" function="internal">
        <lane id=":10281958931_0_0" index="0" allow="pedestrian delivery bicycle" speed="5.14" length="5.11" shape="1246.04,1126.21 1247.46,1126.03 1248.60,1126.31 1249.46,1127.07 1250.04,1128.29" />
    </edge>
    <edge id=":10281958931_1" function="internal">
        <lane id=":10281958931_1_0" index="0" allow="pedestrian delivery bicycle" speed="3.65" length="4.67" shape="1246.04,1126.21 1246.99,1125.13 1247.17,1124.25 1246.58,1123.58 1245.21,1123.12" />
    </edge>
    <edge id=":10281958931_2" function="internal">
        <lane id=":10281958931_2_0" index="0" allow="pedestrian delivery bicycle" speed="5.02" length="5.03" shape="1247.36,1119.30 1247.55,1120.67 1247.26,1121.76 1246.48,1122.58 1245.21,1123.12" />
    </edge>
    <edge id=":10281958931_3" function="internal">
        <lane id=":10281958931_3_0" index="0" disallow="tram rail_urban rail rail_electric rail_fast ship container cable_car subway aircraft wheelchair scooter drone" speed="16.67" length="9.37" shape="1247.36,1119.30 1250.04,1128.29" />
        <lane id=":10281958931_3_1" index="1" disallow="tram rail_urban rail rail_electric rail_fast ship container cable_car subway aircraft wheelchair scooter drone" speed="16.67" length="9.37" shape="1250.43,1118.40 1253.11,1127.36" />
    </edge>
    <edge id=":10281958932_0" function="internal">
        <lane id=":10281958932_0_0" index="0" disallow="tram rail_urban rail rail_electric rail_fast ship container cable_car subway aircraft wheelchair scooter drone" speed="11.11" length="14.40" shape="1263.26,1190.82 1277.00,1186.52" />
        <lane id=":10281958932_0_1" index="1" disallow="tram rail_urban rail rail_electric rail_fast ship container cable_car subway aircraft wheelchair scooter drone" speed="11.11" length="14.40" shape="1262.30,1187.77 1276.04,1183.47" />
    </edge>
    <edge id=":10281958932_2" function="internal">
        <lane id=":10281958932_2_0" index="0" disallow="tram rail_urban rail rail_electric rail_fast ship container cable_car subway aircraft wheelchair scooter drone" speed="7.99" length="14.22" shape="1265.99,1180.70 1267.64,1184.24 1270.03,1186.39 1273.15,1187.15 1277.00,1186.52" />
        <lane id=":10281958932_2_1" index="1" disallow="tram rail_urban rail rail_electric rail_fast ship container cable_car subway aircraft wheelchair scooter drone" speed="6.49" length="9.03" shape="1269.05,1179.77 1270.10,1182.02 1271.62,1183.38 1273.60,1183.86 1276.04,1183.47" />
    </edge>
    <edge id=":10281965681_0" function="internal">
        <lane id=":10281965681_0_0" index="0" disallow="tram rail_urban rail rail_electric rail_fast ship container cable_car subway aircraft wheelchair scooter drone" speed="19.45" length="0.23" shape="73.73,849.78 73.65,849.56" />
    </edge>
    <edge id=":10281965682_0" function="internal">
        <lane id=":10281965682_0_0" index="0" disallow="tram rail_urban rail rail_electric rail_fast ship container cable_car subway aircraft wheelchair scooter drone" speed="3.90" length="2.62" shape="20.81,702.17 20.15,702.47 19.76,702.91 19.62,703.48 19.74,704.19" />
    </edge>
    <edge id=":10560867452_0" function="internal">
        <lane id=":10560867452_0_0" index="0" disallow="tram rail_urban rail rail_electric rail_fast ship container cable_car subway aircraft wheelchair scooter drone" speed="11.11" length="4.49" shape="289.57,655.08 289.14,653.82 288.82,652.97 288.45,652.13 287.88,650.93" />
    </edge>
    <edge id=":10560867452_1" function="internal">
        <lane id=":10560867452_1_0" index="0" disallow="tram rail_urban rail rail_electric rail_fast ship container cable_car subway aircraft wheelchair scooter drone" speed="7.35" length="4.08" shape="286.54,656.10 286.12,654.98 285.70,654.25 285.07,653.69 284.06,653.05" />
    </edge>
    <edge id=":10560867456_0" function="internal">
        <lane id=":10560867456_0_0" index="0" disallow="tram rail_urban rail rail_electric rail_fast ship container cable_car subway aircraft wheelchair scooter drone" speed="11.11" length="8.66" shape="317.66,748.73 317.36,746.28 317.93,744.50 318.49,742.73 318.19,740.28" />
    </edge>
    <edge id=":10560867456_1" function="internal">
        <lane id=":10560867456_1_0" index="0" allow="pedestrian motorcycle moped bicycle" speed="8.34" length="7.48" shape="313.42,748.42 314.46,746.14 315.10,744.19 315.33,742.57 315.16,741.29" />
    </edge>
    <edge id=":10560867460_0" function="internal">
        <lane id=":10560867460_0_0" index="0" allow="pedestrian delivery bicycle" speed="5.56" length="3.00" shape="221.21,724.61 218.37,725.59" />
    </edge>
    <edge id=":10560867460_1" function="internal">
        <lane id=":10560867460_1_0" index="0" allow="pedestrian delivery bicycle" speed="3.65" length="1.44" shape="221.21,724.61 220.34,725.76" />
    </edge>
    <edge id=":10560867460_4" function="internal">
        <lane id=":10560867460_4_0" index="0" allow="pedestrian delivery bicycle" speed="3.65" length="3.23" shape="220.34,725.76 220.22,726.64 220.86,727.27 222.26,727.63" />
    </edge>
    <edge id=":10560867460_2" function="internal">
        <lane id=":10560867460_2_0" index="0" allow="pedestrian delivery bicycle" speed="5.56" length="3.00" shape="219.43,728.62 222.26,727.63" />
    </edge>
    <edge id=":10560867460_3" function="internal">
        <lane id=":10560867460_3_0" index="0" allow="pedestrian delivery bicycle" speed="3.65" length="1.44" shape="219.43,728.62 220.30,727.46" />
    </edge>
    <edge id=":10560867460_5" function="internal">
        <lane id=":10560867460_5_0" index="0" allow="pedestrian delivery bicycle" speed="3.65" length="3.23" shape="220.30,727.46 220.41,726.58 219.77,725.95 218.37,725.59" />
    </edge>
    <edge id=":10560867461_0" function="internal">
        <lane id=":10560867461_0_0" index="0" allow="pedestrian delivery bicycle" speed="5.56" length="3.00" shape="166.96,740.64 164.05,741.39" />
    </edge>
    <edge id=":10560867461_1" function="internal">
        <lane id=":10560867461_1_0" index="0" allow="pedestrian delivery bicycle" speed="3.65" length="1.44" shape="166.96,740.64 166.00,741.71" />
    </edge>
    <edge id=":10560867461_4" function="internal">
        <lane id=":10560867461_4_0" index="0" allow="pedestrian delivery bicycle" speed="3.65" length="3.23" shape="166.00,741.71 165.81,742.59 166.40,743.26 167.76,743.73" />
    </edge>
    <edge id=":10560867461_2" function="internal">
        <lane id=":10560867461_2_0" index="0" allow="pedestrian delivery bicycle" speed="5.56" length="3.00" shape="164.86,744.49 167.76,743.73" />
    </edge>
    <edge id=":10560867461_3" function="internal">
        <lane id=":10560867461_3_0" index="0" allow="pedestrian delivery bicycle" speed="3.65" length="1.44" shape="164.86,744.49 165.82,743.41" />
    </edge>
    <edge id=":10560867461_5" function="internal">
        <lane id=":10560867461_5_0" index="0" allow="pedestrian delivery bicycle" speed="3.65" length="3.23" shape="165.82,743.41 166.00,742.54 165.42,741.86 164.05,741.39" />
    </edge>
    <edge id=":10845792723_0" function="internal">
        <lane id=":10845792723_0_0" index="0" allow="pedestrian delivery bicycle" speed="3.65" length="4.67" shape="988.69,712.03 989.80,712.96 990.68,713.11 991.33,712.50 991.76,711.12" />
    </edge>
    <edge id=":10846984351_0" function="internal">
        <lane id=":10846984351_0_0" index="0" disallow="tram rail_urban rail rail_electric rail_fast ship container cable_car subway aircraft wheelchair scooter drone" speed="3.65" length="4.67" shape="532.27,36.23 531.13,35.35 530.25,35.23 529.62,35.86 529.24,37.25" />
    </edge>
    <edge id=":10904686761_0" function="internal">
        <lane id=":10904686761_0_0" index="0" allow="pedestrian delivery bicycle" speed="3.65" length="4.67" shape="1089.22,1163.14 1090.00,1161.93 1090.05,1161.04 1089.36,1160.46 1087.94,1160.21" />
    </edge>
    <edge id=":10907705738_0" function="internal">
        <lane id=":10907705738_0_0" index="0" allow="pedestrian delivery bicycle" speed="5.03" length="5.01" shape="832.07,739.76 830.72,740.01 829.62,739.77 828.76,739.03 828.15,737.80" />
    </edge>
    <edge id=":10907705738_1" function="internal">
        <lane id=":10907705738_1_0" index="0" disallow="tram rail_urban rail rail_electric rail_fast ship container cable_car subway aircraft wheelchair scooter drone" speed="11.11" length="9.40" shape="832.07,739.76 823.17,742.77" />
    </edge>
    <edge id=":10907705738_2" function="internal">
        <lane id=":10907705738_2_0" index="0" allow="pedestrian delivery bicycle" speed="5.07" length="5.04" shape="825.11,738.79 825.36,740.16 825.11,741.28 824.39,742.15 823.17,742.77" />
    </edge>
    <edge id=":10907705738_3" function="internal">
        <lane id=":10907705738_3_0" index="0" allow="pedestrian delivery bicycle" speed="3.65" length="4.67" shape="825.11,738.79 826.25,739.68 827.13,739.81 827.77,739.18 828.15,737.80" />
    </edge>
    <edge id=":10907705739_0" function="internal">
        <lane id=":10907705739_0_0" index="0" allow="pedestrian delivery bicycle" speed="3.65" length="4.67" shape="813.92,692.70 812.80,691.79 811.91,691.65 811.27,692.27 810.86,693.66" />
    </edge>
    <edge id=":10907806554_0" function="internal">
        <lane id=":10907806554_0_0" index="0" disallow="tram rail_urban rail rail_electric rail_fast ship container cable_car subway aircraft wheelchair scooter drone" speed="6.24" length="9.05" shape="778.52,621.48 776.00,621.62 774.14,620.89 772.95,619.29 772.42,616.81" />
    </edge>
    <edge id=":10907806554_1" function="internal">
        <lane id=":10907806554_1_0" index="0" disallow="tram rail_urban rail rail_electric rail_fast ship container cable_car subway aircraft wheelchair scooter drone" speed="8.34" length="14.42" shape="778.52,621.48 774.67,622.77 772.00,624.86 770.51,627.76 770.20,631.46" />
    </edge>
    <edge id=":10907806554_2" function="internal">
        <lane id=":10907806554_2_0" index="0" disallow="tram rail_urban rail rail_electric rail_fast ship container cable_car subway aircraft wheelchair scooter drone" speed="2.78" length="4.67" shape="778.52,621.48 777.50,622.50 777.27,623.36 777.82,624.07 779.15,624.62" />
    </edge>
    <edge id=":10907806554_3" function="internal">